Version 4
SHEET 1 1856 756
WIRE 224 64 224 32
WIRE 608 96 608 32
WIRE 704 96 608 96
WIRE 112 128 -16 128
WIRE 608 144 608 96
WIRE 560 160 336 160
WIRE -320 192 -320 160
WIRE -224 192 -224 160
WIRE 112 192 -16 192
WIRE 704 192 704 96
WIRE 704 192 608 192
WIRE 224 288 224 256
WIRE 608 288 608 240
WIRE 768 288 608 288
WIRE 880 288 768 288
WIRE 928 288 880 288
WIRE -320 320 -320 272
WIRE -272 320 -320 320
WIRE -224 320 -224 272
WIRE -224 320 -272 320
WIRE 768 320 768 288
WIRE 880 320 880 288
WIRE 608 352 608 288
WIRE -272 368 -272 320
WIRE 768 448 768 384
WIRE 880 448 880 400
WIRE -16 480 -16 192
WIRE 560 480 -16 480
WIRE 608 480 608 432
WIRE 608 480 560 480
WIRE 608 528 608 480
WIRE 608 672 608 608
FLAG -16 128 Vref
FLAG -224 160 Vref
FLAG -272 368 0
FLAG -272 320 vss
FLAG 224 288 vss
FLAG 224 32 Vdd
FLAG -320 160 Vdd
FLAG 608 672 vss
FLAG 768 448 vss
FLAG 880 448 vss
FLAG 928 288 Vreg
FLAG 608 32 Vdd
FLAG 560 480 Vfb
DATAFLAG 640 288 ""
DATAFLAG 416 480 ""
SYMBOL Error_amp 192 144 R0
SYMATTR InstName X1
SYMBOL voltage -224 176 R0
WINDOW 123 24 124 Left 2
WINDOW 39 0 0 Left 0
SYMATTR InstName Vcm
SYMATTR Value 0.95
SYMBOL voltage -320 176 R0
WINDOW 123 24 124 Left 2
WINDOW 39 0 0 Left 0
WINDOW 3 -42 103 Left 2
SYMATTR Value 1.8
SYMATTR InstName vdd
SYMBOL res 592 336 R0
SYMATTR InstName R1
SYMATTR Value 110k
SYMBOL res 592 512 R0
SYMATTR InstName R2
SYMATTR Value 190k
SYMBOL pmos4 560 240 M180
WINDOW 123 70 163 Left 2
SYMATTR Value2 l=0.18u w={wp} m=1000
SYMATTR InstName M1
SYMBOL current 880 320 R0
WINDOW 123 0 0 Left 0
WINDOW 39 0 0 Left 0
SYMATTR InstName I1
SYMATTR Value 0
SYMBOL cap 752 320 R0
SYMATTR InstName C1
SYMATTR Value 10p
TEXT -320 464 Left 2 !.include tsmc180.txt
TEXT -320 488 Left 2 !.op
TEXT -320 512 Left 2 !.param wp=10.93µ
TEXT -320 536 Left 2 !;step param wp 0.18u 0.18m 0.18u
TEXT -320 560 Left 2 ;.dc vdd 1.3 2 0.1
TEXT -320 592 Left 2 ;.ac dec 100 10 1gig
TEXT -320 624 Left 2 ;.tran 30m
TEXT -24 624 Left 2 ;.dc I1 10u 24m 10u
